CCCC(C)C
  ChemDraw09282620572D

 20 19  0  0  0  0  0  0  0  0999 V2000
   -1.6500   -0.3713    0.0000 C   0  0  0  0  0  0  0  0  0  0  0  0
   -0.8250   -0.3713    0.0000 C   0  0  0  0  0  0  0  0  0  0  0  0
    0.0000   -0.3713    0.0000 C   0  0  0  0  0  0  0  0  0  0  0  0
    0.8250   -0.3713    0.0000 C   0  0  0  0  0  0  0  0  0  0  0  0
   -0.8250    0.4537    0.0000 C   0  0  0  0  0  0  0  0  0  0  0  0
    1.6500   -0.3713    0.0000 C   0  0  0  0  0  0  0  0  0  0  0  0
   -1.6500    0.2475    0.0000 H   0  0  0  0  0  0  0  0  0  0  0  0
   -1.6500   -0.9900    0.0000 H   0  0  0  0  0  0  0  0  0  0  0  0
   -2.2687   -0.3713    0.0000 H   0  0  0  0  0  0  0  0  0  0  0  0
   -0.8250   -0.9900    0.0000 H   0  0  0  0  0  0  0  0  0  0  0  0
    0.0000   -0.9900    0.0000 H   0  0  0  0  0  0  0  0  0  0  0  0
    0.0000    0.2475    0.0000 H   0  0  0  0  0  0  0  0  0  0  0  0
    0.8250   -0.9900    0.0000 H   0  0  0  0  0  0  0  0  0  0  0  0
    0.8250    0.2475    0.0000 H   0  0  0  0  0  0  0  0  0  0  0  0
    2.2687   -0.3713    0.0000 H   0  0  0  0  0  0  0  0  0  0  0  0
    1.6500    0.2475    0.0000 H   0  0  0  0  0  0  0  0  0  0  0  0
    1.6500   -0.9900    0.0000 H   0  0  0  0  0  0  0  0  0  0  0  0
   -1.3332    0.4537    0.0000 H   0  0  0  0  0  0  0  0  0  0  0  0
   -0.3168    0.4537    0.0000 H   0  0  0  0  0  0  0  0  0  0  0  0
   -0.8250    0.9900    0.0000 H   0  0  0  0  0  0  0  0  0  0  0  0
  1  2  1  0      
  2  3  1  0      
  3  4  1  0      
  2  5  1  0      
  4  6  1  0      
  1  7  1  0      
  1  8  1  0      
  1  9  1  0      
  2 10  1  0      
  3 11  1  0      
  3 12  1  0      
  4 13  1  0      
  4 14  1  0      
  6 15  1  0      
  6 16  1  0      
  6 17  1  0      
  5 18  1  0      
  5 19  1  0      
  5 20  1  0      
M  END
