2-methylpentane.cdx
  ChemDraw09232616442D

 32 29  0  0  0  0  0  0  0  0999 V2000
   -1.6087    2.8474    0.0000 C   0  0  0  0  0  0  0  0  0  0  0  0
   -0.7838    2.8474    0.0000 C   0  0  0  0  0  0  0  0  0  0  0  0
    0.0413    2.8474    0.0000 C   0  0  0  0  0  0  0  0  0  0  0  0
    0.8662    2.8474    0.0000 C   0  0  0  0  0  0  0  0  0  0  0  0
   -0.7838    3.6724    0.0000 C   0  0  0  0  0  0  0  0  0  0  0  0
    1.6912    2.8474    0.0000 C   0  0  0  0  0  0  0  0  0  0  0  0
   -1.6500   -0.2669    0.0000 C   0  0  0  0  0  0  0  0  0  0  0  0
   -0.8250   -0.2669    0.0000 C   0  0  0  0  0  0  0  0  0  0  0  0
    0.0000   -0.2669    0.0000 C   0  0  0  0  0  0  0  0  0  0  0  0
    0.8250   -0.2669    0.0000 C   0  0  0  0  0  0  0  0  0  0  0  0
   -0.8250    0.9706    0.0000 C   0  0  0  0  0  0  0  0  0  0  0  0
    1.6500   -0.2669    0.0000 C   0  0  0  0  0  0  0  0  0  0  0  0
   -0.1105    0.9706    0.0000 H   0  0  0  0  0  0  0  0  0  0  0  0
   -1.5395    0.9706    0.0000 H   0  0  0  0  0  0  0  0  0  0  0  0
   -1.6500    0.4549    0.0000 H   0  0  0  0  0  0  0  0  0  0  0  0
   -1.6500   -0.9888    0.0000 H   0  0  0  0  0  0  0  0  0  0  0  0
   -2.3719   -0.2669    0.0000 H   0  0  0  0  0  0  0  0  0  0  0  0
   -0.8250   -0.9888    0.0000 H   0  0  0  0  0  0  0  0  0  0  0  0
    0.0000   -0.9888    0.0000 H   0  0  0  0  0  0  0  0  0  0  0  0
    0.0000    0.4549    0.0000 H   0  0  0  0  0  0  0  0  0  0  0  0
    0.8250   -0.9888    0.0000 H   0  0  0  0  0  0  0  0  0  0  0  0
    0.8250    0.4549    0.0000 H   0  0  0  0  0  0  0  0  0  0  0  0
    2.3719   -0.2669    0.0000 H   0  0  0  0  0  0  0  0  0  0  0  0
    1.6500   -0.9888    0.0000 H   0  0  0  0  0  0  0  0  0  0  0  0
    1.6500    0.4549    0.0000 H   0  0  0  0  0  0  0  0  0  0  0  0
   -0.8250    1.6306    0.0000 H   0  0  0  0  0  0  0  0  0  0  0  0
   -1.0342   -2.4349    0.0000 C   0  0  0  0  0  0  0  0  0  0  0  0
   -1.0342   -3.2599    0.0000 C   0  0  0  0  0  0  0  0  0  0  0  0
   -1.7486   -3.6724    0.0000 C   0  0  0  0  0  0  0  0  0  0  0  0
   -0.3197   -3.6724    0.0000 C   0  0  0  0  0  0  0  0  0  0  0  0
    0.3948   -3.2599    0.0000 C   0  0  0  0  0  0  0  0  0  0  0  0
    1.1093   -3.6724    0.0000 C   0  0  0  0  0  0  0  0  0  0  0  0
  1  2  1  0      
  2  3  1  0      
  3  4  1  0      
  2  5  1  0      
  4  6  1  0      
  7  8  1  0      
  8  9  1  0      
  9 10  1  0      
  8 11  1  0      
 10 12  1  0      
 11 13  1  0      
 11 14  1  0      
  7 15  1  0      
  7 16  1  0      
  7 17  1  0      
  8 18  1  0      
  9 19  1  0      
  9 20  1  0      
 10 21  1  0      
 10 22  1  0      
 12 23  1  0      
 12 24  1  0      
 12 25  1  0      
 11 26  1  0      
 27 28  1  0      
 28 29  1  0      
 28 30  1  0      
 30 31  1  0      
 31 32  1  0      
M  END
