Untitled Document-2
  ChemDraw09232618102D

  6  5  0  0  0  0  0  0  0  0999 V2000
   -1.6500   -0.4125    0.0000 C   0  0  0  0  0  0  0  0  0  0  0  0
   -0.8250   -0.4125    0.0000 C   0  0  0  0  0  0  0  0  0  0  0  0
    0.0000   -0.4125    0.0000 C   0  0  0  0  0  0  0  0  0  0  0  0
    0.8250   -0.4125    0.0000 C   0  0  0  0  0  0  0  0  0  0  0  0
   -0.8250    0.4125    0.0000 C   0  0  0  0  0  0  0  0  0  0  0  0
    1.6500   -0.4125    0.0000 C   0  0  0  0  0  0  0  0  0  0  0  0
  1  2  1  0      
  2  3  1  0      
  3  4  1  0      
  2  5  1  0      
  4  6  1  0      
M  END
