Untitled Document-3
  ChemDraw09232618102D

 20 19  0  0  0  0  0  0  0  0999 V2000
   -1.6706   -0.5569    0.0000 C   0  0  0  0  0  0  0  0  0  0  0  0
   -0.8456   -0.5569    0.0000 C   0  0  0  0  0  0  0  0  0  0  0  0
   -0.0206   -0.5569    0.0000 C   0  0  0  0  0  0  0  0  0  0  0  0
    0.8044   -0.5569    0.0000 C   0  0  0  0  0  0  0  0  0  0  0  0
   -0.8456    0.5569    0.0000 C   0  0  0  0  0  0  0  0  0  0  0  0
    1.6294   -0.5569    0.0000 C   0  0  0  0  0  0  0  0  0  0  0  0
   -0.1312    0.5569    0.0000 H   0  0  0  0  0  0  0  0  0  0  0  0
   -1.5601    0.5569    0.0000 H   0  0  0  0  0  0  0  0  0  0  0  0
   -1.6706    0.0619    0.0000 H   0  0  0  0  0  0  0  0  0  0  0  0
   -1.6706   -1.2169    0.0000 H   0  0  0  0  0  0  0  0  0  0  0  0
   -2.3100   -0.5569    0.0000 H   0  0  0  0  0  0  0  0  0  0  0  0
   -0.8456   -1.2169    0.0000 H   0  0  0  0  0  0  0  0  0  0  0  0
   -0.0206   -1.2169    0.0000 H   0  0  0  0  0  0  0  0  0  0  0  0
   -0.0206    0.0619    0.0000 H   0  0  0  0  0  0  0  0  0  0  0  0
    0.8044   -1.2169    0.0000 H   0  0  0  0  0  0  0  0  0  0  0  0
    0.8044    0.0619    0.0000 H   0  0  0  0  0  0  0  0  0  0  0  0
    2.3100   -0.5569    0.0000 H   0  0  0  0  0  0  0  0  0  0  0  0
    1.6294   -1.2169    0.0000 H   0  0  0  0  0  0  0  0  0  0  0  0
    1.6294    0.0619    0.0000 H   0  0  0  0  0  0  0  0  0  0  0  0
   -0.8456    1.2169    0.0000 H   0  0  0  0  0  0  0  0  0  0  0  0
  1  2  1  0      
  2  3  1  0      
  3  4  1  0      
  2  5  1  0      
  4  6  1  0      
  5  7  1  0      
  5  8  1  0      
  1  9  1  0      
  1 10  1  0      
  1 11  1  0      
  2 12  1  0      
  3 13  1  0      
  3 14  1  0      
  4 15  1  0      
  4 16  1  0      
  6 17  1  0      
  6 18  1  0      
  6 19  1  0      
  5 20  1  0      
M  END
