Untitled Document-1
  ChemDraw09302616322D

  5  4  0  0  0  0  0  0  0  0999 V2000
   -1.2375   -0.4125    0.0000 C   0  0  0  0  0  0  0  0  0  0  0  0
   -0.4125   -0.4125    0.0000 C   0  0  0  0  0  0  0  0  0  0  0  0
   -0.4125    0.4125    0.0000 O   0  0  0  0  0  0  0  0  0  0  0  0
    0.4125   -0.4125    0.0000 O   0  0  0  0  0  0  0  0  0  0  0  0
    1.2375   -0.4125    0.0000 C   0  0  0  0  0  0  0  0  0  0  0  0
  1  2  1  0      
  2  3  2  0      
  2  4  1  0      
  4  5  1  0      
M  END
