propanoic_methyl_ester_EXP.mol
  ChemDraw09302618182D

 14 13  0  0  0  0  0  0  0  0999 V2000
   -0.8250    0.0000    0.0000 C   0  0  0  0  0  0  0  0  0  0  0  0
    0.0000    0.0000    0.0000 C   0  0  0  0  0  0  0  0  0  0  0  0
    0.0000    0.8250    0.0000 O   0  0  0  0  0  0  0  0  0  0  0  0
    0.8250    0.0000    0.0000 O   0  0  0  0  0  0  0  0  0  0  0  0
    1.6500    0.0000    0.0000 C   0  0  0  0  0  0  0  0  0  0  0  0
   -1.6500    0.0000    0.0000 C   0  0  0  0  0  0  0  0  0  0  0  0
   -0.8250    0.8250    0.0000 H   0  0  0  0  0  0  0  0  0  0  0  0
   -0.8250   -0.8250    0.0000 H   0  0  0  0  0  0  0  0  0  0  0  0
   -2.4750    0.0000    0.0000 H   0  0  0  0  0  0  0  0  0  0  0  0
   -1.6500    0.8250    0.0000 H   0  0  0  0  0  0  0  0  0  0  0  0
   -1.6500   -0.8250    0.0000 H   0  0  0  0  0  0  0  0  0  0  0  0
    2.4750    0.0000    0.0000 H   0  0  0  0  0  0  0  0  0  0  0  0
    1.6500    0.8250    0.0000 H   0  0  0  0  0  0  0  0  0  0  0  0
    1.6500   -0.8250    0.0000 H   0  0  0  0  0  0  0  0  0  0  0  0
  1  2  1  0      
  2  3  2  0      
  2  4  1  0      
  4  5  1  0      
  1  6  1  0      
  1  7  1  0      
  1  8  1  0      
  6  9  1  0      
  6 10  1  0      
  6 11  1  0      
  5 12  1  0      
  5 13  1  0      
  5 14  1  0      
M  END
